
#======================================================================
# CRYSTAL DATA
#----------------------------------------------------------------------
data_VESTA_phase_1

_chemical_name_common                  'New structure'
_cell_length_a                         3.088291
_cell_length_b                         3.736831
_cell_length_c                         3.770734
_cell_angle_alpha                      113.516823
_cell_angle_beta                       65.826065
_cell_angle_gamma                      114.407478
_cell_volume                           34.741267
_space_group_name_H-M_alt              'P 1'
_space_group_IT_number                 1

loop_
_space_group_symop_operation_xyz
   'x, y, z'

loop_
   _atom_site_label
   _atom_site_occupancy
   _atom_site_fract_x
   _atom_site_fract_y
   _atom_site_fract_z
   _atom_site_adp_type
   _atom_site_U_iso_or_equiv
   _atom_site_type_symbol
   K          1.0     0.498767     0.000000     0.500000    Uiso  ? K
   H          1.0     0.116715     0.775638     0.039742    Uiso  ? H
   H          1.0     0.417327     0.423971     0.086852    Uiso  ? H
   H          1.0     0.208267     0.018563     0.099563    Uiso  ? H
   H          1.0     0.865687     0.549664     0.315827    Uiso  ? H
   H          1.0     0.223504     0.386541     0.437067    Uiso  ? H
   H          1.0     0.774031     0.613459     0.562932    Uiso  ? H
   H          1.0     0.131849     0.450335     0.684173    Uiso  ? H
   H          1.0     0.789268     0.981437     0.900437    Uiso  ? H
   H          1.0     0.580208     0.576029     0.913148    Uiso  ? H
   H          1.0     0.880820     0.224362     0.960258    Uiso  ? H
