
#======================================================================
# CRYSTAL DATA
#----------------------------------------------------------------------
data_VESTA_phase_1

_chemical_name_common                  'New structure'
_cell_length_a                         3.414565
_cell_length_b                         3.414565
_cell_length_c                         3.414565
_cell_angle_alpha                      75.488930
_cell_angle_beta                       75.488930
_cell_angle_gamma                      75.488930
_cell_volume                           36.555147
_space_group_name_H-M_alt              'P 1'
_space_group_IT_number                 1

loop_
_space_group_symop_operation_xyz
   'x, y, z'

loop_
   _atom_site_label
   _atom_site_occupancy
   _atom_site_fract_x
   _atom_site_fract_y
   _atom_site_fract_z
   _atom_site_adp_type
   _atom_site_U_iso_or_equiv
   _atom_site_type_symbol
   Sr         1.0     -0.000000     0.000000     -0.000000    Uiso  ? Sr
   H          1.0     0.497065     0.353006     0.079421    Uiso  ? H
   H          1.0     0.188797     0.426633     0.076689    Uiso  ? H
   H          1.0     0.426633     0.076689     0.188797    Uiso  ? H
   H          1.0     0.808030     0.517319     0.189886    Uiso  ? H
   H          1.0     0.482681     0.810114     0.191970    Uiso  ? H
   H          1.0     0.338265     0.590467     0.317208    Uiso  ? H
   H          1.0     0.590467     0.317208     0.338265    Uiso  ? H
   H          1.0     0.079421     0.497065     0.353006    Uiso  ? H
   H          1.0     0.682792     0.661735     0.409533    Uiso  ? H
   H          1.0     0.076689     0.188797     0.426633    Uiso  ? H
   H          1.0     0.810114     0.191970     0.482681    Uiso  ? H
   H          1.0     0.353006     0.079421     0.497065    Uiso  ? H
   H          1.0     0.646994     0.920579     0.502935    Uiso  ? H
   H          1.0     0.189886     0.808030     0.517319    Uiso  ? H
   H          1.0     0.923311     0.811203     0.573367    Uiso  ? H
   H          1.0     0.317208     0.338265     0.590467    Uiso  ? H
   H          1.0     0.920579     0.502935     0.646994    Uiso  ? H
   H          1.0     0.409533     0.682792     0.661735    Uiso  ? H
   H          1.0     0.661735     0.409533     0.682792    Uiso  ? H
   H          1.0     0.517319     0.189886     0.808030    Uiso  ? H
   H          1.0     0.191970     0.482681     0.810114    Uiso  ? H
   H          1.0     0.573367     0.923311     0.811203    Uiso  ? H
   H          1.0     0.811203     0.573367     0.923311    Uiso  ? H
   H          1.0     0.502935     0.646994     0.920579    Uiso  ? H
