
#======================================================================
# CRYSTAL DATA
#----------------------------------------------------------------------
data_VESTA_phase_1

_chemical_name_common                  'New structure'
_cell_length_a                         2.681639
_cell_length_b                         2.681639
_cell_length_c                         2.681639
_cell_angle_alpha                      90.000000
_cell_angle_beta                       90.000000
_cell_angle_gamma                      90.000000
_cell_volume                           19.284179
_space_group_name_H-M_alt              'P 1'
_space_group_IT_number                 1

loop_
_space_group_symop_operation_xyz
   'x, y, z'

loop_
   _atom_site_label
   _atom_site_occupancy
   _atom_site_fract_x
   _atom_site_fract_y
   _atom_site_fract_z
   _atom_site_adp_type
   _atom_site_U_iso_or_equiv
   _atom_site_type_symbol
   Mg         1.0     0.500000     0.500000     0.500000    Uiso  ? Mg
   H          1.0     0.224369     0.336779     0.000000    Uiso  ? H
   H          1.0     0.775631     0.336779     0.000000    Uiso  ? H
   H          1.0     0.224369     0.663221     0.000000    Uiso  ? H
   H          1.0     0.775631     0.663221     0.000000    Uiso  ? H
   H          1.0     0.336779     -0.000000     0.224369    Uiso  ? H
   H          1.0     0.663221     0.000000     0.224369    Uiso  ? H
   H          1.0     0.000000     0.224369     0.336779    Uiso  ? H
   H          1.0     0.000000     0.775631     0.336779    Uiso  ? H
   H          1.0     -0.000000     0.224369     0.663221    Uiso  ? H
   H          1.0     0.000000     0.775631     0.663221    Uiso  ? H
   H          1.0     0.336779     0.000000     0.775631    Uiso  ? H
   H          1.0     0.663221     -0.000000     0.775631    Uiso  ? H
