
#======================================================================
# CRYSTAL DATA
#----------------------------------------------------------------------
data_VESTA_phase_1

_chemical_name_common                  'New structure'
_cell_length_a                         2.919742
_cell_length_b                         2.919742
_cell_length_c                         2.919742
_cell_angle_alpha                      62.970573
_cell_angle_beta                       62.970573
_cell_angle_gamma                      62.970573
_cell_volume                           18.761210
_space_group_name_H-M_alt              'P 1'
_space_group_IT_number                 1

loop_
_space_group_symop_operation_xyz
   'x, y, z'

loop_
   _atom_site_label
   _atom_site_occupancy
   _atom_site_fract_x
   _atom_site_fract_y
   _atom_site_fract_z
   _atom_site_adp_type
   _atom_site_U_iso_or_equiv
   _atom_site_type_symbol
   Ca         1.0     0.500000     0.500000     0.500000    Uiso  ? Ca
   H          1.0     0.110042     0.110042     0.110042    Uiso  ? H
   H          1.0     0.626026     0.108399     0.108399    Uiso  ? H
   H          1.0     0.108399     0.626026     0.108399    Uiso  ? H
   H          1.0     0.261683     0.261683     0.261683    Uiso  ? H
   H          1.0     0.891601     0.891601     0.373974    Uiso  ? H
   H          1.0     0.108399     0.108399     0.626026    Uiso  ? H
   H          1.0     0.738317     0.738317     0.738317    Uiso  ? H
   H          1.0     0.891601     0.373974     0.891601    Uiso  ? H
   H          1.0     0.373974     0.891601     0.891601    Uiso  ? H
   H          1.0     0.889958     0.889958     0.889958    Uiso  ? H
