
#======================================================================
# CRYSTAL DATA
#----------------------------------------------------------------------
data_VESTA_phase_1

_chemical_name_common                  'New structure'
_cell_length_a                         3.510521
_cell_length_b                         3.510521
_cell_length_c                         2.305836
_cell_angle_alpha                      90.000000
_cell_angle_beta                       90.000000
_cell_angle_gamma                      120.000000
_cell_volume                           24.609465
_space_group_name_H-M_alt              'P 1'
_space_group_IT_number                 1

loop_
_space_group_symop_operation_xyz
   'x, y, z'

loop_
   _atom_site_label
   _atom_site_occupancy
   _atom_site_fract_x
   _atom_site_fract_y
   _atom_site_fract_z
   _atom_site_adp_type
   _atom_site_U_iso_or_equiv
   _atom_site_type_symbol
   Ca         1.0     -0.000000     0.000000     0.500000    Uiso  ? Ca
   H          1.0     0.648736     0.000000     -0.000000    Uiso  ? H
   H          1.0     0.435118     0.163579     -0.000000    Uiso  ? H
   H          1.0     0.836421     0.271539     0.000000    Uiso  ? H
   H          1.0     0.351264     0.351264     -0.000000    Uiso  ? H
   H          1.0     0.163579     0.435118     -0.000000    Uiso  ? H
   H          1.0     0.728461     0.564882     -0.000000    Uiso  ? H
   H          1.0     0.000000     0.648736     -0.000000    Uiso  ? H
   H          1.0     0.564882     0.728461     -0.000000    Uiso  ? H
   H          1.0     0.271539     0.836421     0.000000    Uiso  ? H
   H          1.0     0.565632     0.136069     0.500000    Uiso  ? H
   H          1.0     0.570437     0.434368     0.500000    Uiso  ? H
   H          1.0     0.863931     0.429563     0.500000    Uiso  ? H
   H          1.0     0.136069     0.565632     0.500000    Uiso  ? H
   H          1.0     0.434368     0.570437     0.500000    Uiso  ? H
   H          1.0     0.429563     0.863931     0.500000    Uiso  ? H
