
#======================================================================
# CRYSTAL DATA
#----------------------------------------------------------------------
data_VESTA_phase_1

_chemical_name_common                  'New structure'
_cell_length_a                         3.767004
_cell_length_b                         3.737097
_cell_length_c                         4.850768
_cell_angle_alpha                      89.999962
_cell_angle_beta                       130.079163
_cell_angle_gamma                      90.000061
_cell_volume                           52.250521
_space_group_name_H-M_alt              'P 1'
_space_group_IT_number                 1

loop_
_space_group_symop_operation_xyz
   'x, y, z'

loop_
   _atom_site_label
   _atom_site_occupancy
   _atom_site_fract_x
   _atom_site_fract_y
   _atom_site_fract_z
   _atom_site_adp_type
   _atom_site_U_iso_or_equiv
   _atom_site_type_symbol
   Ac         1.0    -0.000000     0.528084     0.250000    Uiso  ? Ac
   Ac         1.0     0.000000     0.028085     0.750000    Uiso  ? Ac
   H          1.0     0.715220     0.028085     0.003534    Uiso  ? H
   H          1.0     0.715223     0.028084     0.211688    Uiso  ? H
   H          1.0     0.500000     0.278089     0.250000    Uiso  ? H
   H          1.0     0.500000     0.778080     0.250000    Uiso  ? H
   H          1.0     0.284777     0.028085     0.288312    Uiso  ? H
   H          1.0     0.284780     0.028085     0.496466    Uiso  ? H
   H          1.0     0.715220     0.528084     0.503534    Uiso  ? H
   H          1.0     0.715223     0.528084     0.711688    Uiso  ? H
   H          1.0     0.500000     0.278080     0.750000    Uiso  ? H
   H          1.0     0.500000     0.778089     0.750000    Uiso  ? H
   H          1.0     0.284777     0.528085     0.788312    Uiso  ? H
   H          1.0     0.284780     0.528084     0.996466    Uiso  ? H
