
#======================================================================
# CRYSTAL DATA
#----------------------------------------------------------------------
data_VESTA_phase_1

_chemical_name_common                  'New structure'
_cell_length_a                         2.630593
_cell_length_b                         2.630593
_cell_length_c                         4.706359
_cell_angle_alpha                      107.894699
_cell_angle_beta                       107.894699
_cell_angle_gamma                      61.332325
_cell_volume                           26.690325
_space_group_name_H-M_alt              'P 1'
_space_group_IT_number                 1

loop_
_space_group_symop_operation_xyz
   'x, y, z'

loop_
   _atom_site_label
   _atom_site_occupancy
   _atom_site_fract_x
   _atom_site_fract_y
   _atom_site_fract_z
   _atom_site_adp_type
   _atom_site_U_iso_or_equiv
   _atom_site_type_symbol
   Mg         1.0     0.249775     0.249775     0.268747    Uiso  ? Mg
   Mg         1.0     0.750225     0.750225     0.731253    Uiso  ? Mg
   H          1.0     0.599998     0.599998     0.023722    Uiso  ? H
   H          1.0     0.861564     0.861564     0.113455    Uiso  ? H
   H          1.0     0.622505     0.622505     0.366562    Uiso  ? H
   H          1.0     0.000000     0.000000     0.500000    Uiso  ? H
   H          1.0     0.377495     0.377495     0.633438    Uiso  ? H
   H          1.0     0.138436     0.138436     0.886545    Uiso  ? H
   H          1.0     0.400002     0.400002     0.976278    Uiso  ? H
