
#======================================================================
# CRYSTAL DATA
#----------------------------------------------------------------------
data_VESTA_phase_1

_chemical_name_common                  'New structure'
_cell_length_a                         2.894580
_cell_length_b                         3.707808
_cell_length_c                         5.025520
_cell_angle_alpha                      90.000000
_cell_angle_beta                       90.000000
_cell_angle_gamma                      112.975388
_cell_volume                           49.657980
_space_group_name_H-M_alt              'P 1'
_space_group_IT_number                 1

loop_
_space_group_symop_operation_xyz
   'x, y, z'

loop_
   _atom_site_label
   _atom_site_occupancy
   _atom_site_fract_x
   _atom_site_fract_y
   _atom_site_fract_z
   _atom_site_adp_type
   _atom_site_U_iso_or_equiv
   _atom_site_type_symbol
   Ac         1.0     0.394650     0.286886     0.142677    Uiso  ? Ac
   Ac         1.0     0.610530     0.718646     0.642677    Uiso  ? Ac
   H          1.0     0.691210     0.880007     0.037097    Uiso  ? H
   H          1.0     0.691210     0.880007     0.248257    Uiso  ? H
   H          1.0     0.106782     0.711150     0.304239    Uiso  ? H
   H          1.0     0.898398     0.294382     0.481114    Uiso  ? H
   H          1.0     0.313969     0.125525     0.537097    Uiso  ? H
   H          1.0     0.313969     0.125525     0.748257    Uiso  ? H
   H          1.0     0.898398     0.294382     0.804239    Uiso  ? H
   H          1.0     0.106782     0.711150     0.981114    Uiso  ? H
