
#======================================================================
# CRYSTAL DATA
#----------------------------------------------------------------------
data_VESTA_phase_1

_chemical_name_common                  'New structure'
_cell_length_a                         2.528201
_cell_length_b                         2.801656
_cell_length_c                         4.196960
_cell_angle_alpha                      80.513260
_cell_angle_beta                       72.482635
_cell_angle_gamma                      63.189327
_cell_volume                           25.286867
_space_group_name_H-M_alt              'P 1'
_space_group_IT_number                 1

loop_
_space_group_symop_operation_xyz
   'x, y, z'

loop_
   _atom_site_label
   _atom_site_occupancy
   _atom_site_fract_x
   _atom_site_fract_y
   _atom_site_fract_z
   _atom_site_adp_type
   _atom_site_U_iso_or_equiv
   _atom_site_type_symbol
   Sc         1.0     0.000000     -0.000000     0.500000    Uiso  ? Sc
   H          1.0     0.213230     0.004851     0.068423    Uiso  ? H
   H          1.0     0.405695     0.614756     0.073840    Uiso  ? H
   H          1.0     0.018481     0.355947     0.106909    Uiso  ? H
   H          1.0     0.635520     0.011718     0.216978    Uiso  ? H
   H          1.0     0.792444     0.631472     0.283054    Uiso  ? H
   H          1.0     0.392832     0.382894     0.331417    Uiso  ? H
   H          1.0     0.607168     0.617106     0.668583    Uiso  ? H
   H          1.0     0.207556     0.368528     0.716946    Uiso  ? H
   H          1.0     0.364480     0.988282     0.783022    Uiso  ? H
   H          1.0     0.981519     0.644053     0.893091    Uiso  ? H
   H          1.0     0.594305     0.385244     0.926160    Uiso  ? H
   H          1.0     0.786770     0.995149     0.931577    Uiso  ? H
