
#======================================================================
# CRYSTAL DATA
#----------------------------------------------------------------------
data_VESTA_phase_1

_chemical_name_common                  'New structure'
_cell_length_a                         2.759454
_cell_length_b                         2.759454
_cell_length_c                         2.750407
_cell_angle_alpha                      119.904587
_cell_angle_beta                       119.904587
_cell_angle_gamma                      57.733894
_cell_volume                           14.559237
_space_group_name_H-M_alt              'P 1'
_space_group_IT_number                 1

loop_
_space_group_symop_operation_xyz
   'x, y, z'

loop_
   _atom_site_label
   _atom_site_occupancy
   _atom_site_fract_x
   _atom_site_fract_y
   _atom_site_fract_z
   _atom_site_adp_type
   _atom_site_U_iso_or_equiv
   _atom_site_type_symbol
   Mg         1.0     0.500000     0.500000     0.500000    Uiso  ? Mg
   H          1.0     0.878113     0.340316     0.109029    Uiso  ? H
   H          1.0     0.340316     0.878113     0.109029    Uiso  ? H
   H          1.0     0.832279     0.832279     0.150447    Uiso  ? H
   H          1.0     0.166527     0.166527     0.480420    Uiso  ? H
   H          1.0     0.833473     0.833473     0.519580    Uiso  ? H
   H          1.0     0.167721     0.167721     0.849553    Uiso  ? H
   H          1.0     0.659684     0.121887     0.890971    Uiso  ? H
   H          1.0     0.121887     0.659684     0.890971    Uiso  ? H
