
#======================================================================
# CRYSTAL DATA
#----------------------------------------------------------------------
data_VESTA_phase_1

_chemical_name_common                  'New structure'
_cell_length_a                         4.503353
_cell_length_b                         4.503353
_cell_length_c                         4.503353
_cell_angle_alpha                      32.723202
_cell_angle_beta                       32.723202
_cell_angle_gamma                      32.723202
_cell_volume                           23.740152
_space_group_name_H-M_alt              'P 1'
_space_group_IT_number                 1

loop_
_space_group_symop_operation_xyz
   'x, y, z'

loop_
   _atom_site_label
   _atom_site_occupancy
   _atom_site_fract_x
   _atom_site_fract_y
   _atom_site_fract_z
   _atom_site_adp_type
   _atom_site_U_iso_or_equiv
   _atom_site_type_symbol
   Mg         1.0     0.415474     0.415474     0.415474    Uiso  ? Mg
   Mg         1.0     0.584526     0.584526     0.584526    Uiso  ? Mg
   H          1.0     0.000000     0.000000     -0.000000    Uiso  ? H
   H          1.0     0.155988     0.155988     0.155988    Uiso  ? H
   H          1.0     0.289465     0.289465     0.289465    Uiso  ? H
   H          1.0     0.710535     0.710535     0.710535    Uiso  ? H
   H          1.0     0.844011     0.844011     0.844011    Uiso  ? H
