
#======================================================================
# CRYSTAL DATA
#----------------------------------------------------------------------
data_VESTA_phase_1

_chemical_name_common                  'New structure'
_cell_length_a                         2.925691
_cell_length_b                         2.925691
_cell_length_c                         5.195605
_cell_angle_alpha                      72.861168
_cell_angle_beta                       72.861168
_cell_angle_gamma                      87.326874
_cell_volume                           40.571213
_space_group_name_H-M_alt              'P 1'
_space_group_IT_number                 1

loop_
_space_group_symop_operation_xyz
   'x, y, z'

loop_
   _atom_site_label
   _atom_site_occupancy
   _atom_site_fract_x
   _atom_site_fract_y
   _atom_site_fract_z
   _atom_site_adp_type
   _atom_site_U_iso_or_equiv
   _atom_site_type_symbol
   S          1.0     0.153975     0.654764     0.191604    Uiso  ? S
   S          1.0     0.845578     0.346368     0.808396    Uiso  ? S
   H          1.0     0.705156     0.205946     0.089247    Uiso  ? H
   H          1.0     0.168637     0.169427     0.162280    Uiso  ? H
   H          1.0     0.668637     0.669427     0.162280    Uiso  ? H
   H          1.0     0.668161     0.168951     0.340458    Uiso  ? H
   H          1.0     0.490938     0.991728     0.340452    Uiso  ? H
   H          1.0     0.027454     0.133027     0.500003    Uiso  ? H
   H          1.0     0.367316     0.472888     0.499997    Uiso  ? H
   H          1.0     0.632237     0.528244     0.500003    Uiso  ? H
   H          1.0     0.972098     0.868105     0.499997    Uiso  ? H
   H          1.0     0.508615     0.009404     0.659548    Uiso  ? H
   H          1.0     0.331392     0.832182     0.659542    Uiso  ? H
   H          1.0     0.330915     0.331705     0.837720    Uiso  ? H
   H          1.0     0.830916     0.831705     0.837720    Uiso  ? H
   H          1.0     0.294396     0.795186     0.910753    Uiso  ? H
