
#======================================================================
# CRYSTAL DATA
#----------------------------------------------------------------------
data_VESTA_phase_1

_chemical_name_common                  'New structure'
_cell_length_a                         2.584994
_cell_length_b                         2.584994
_cell_length_c                         2.584994
_cell_angle_alpha                      109.471222
_cell_angle_beta                       109.471222
_cell_angle_gamma                      109.471222
_cell_volume                           13.297091
_space_group_name_H-M_alt              'P 1'
_space_group_IT_number                 1

loop_
_space_group_symop_operation_xyz
   'x, y, z'

loop_
   _atom_site_label
   _atom_site_occupancy
   _atom_site_fract_x
   _atom_site_fract_y
   _atom_site_fract_z
   _atom_site_adp_type
   _atom_site_U_iso_or_equiv
   _atom_site_type_symbol
   S          1.0     0.000000     0.000000     0.000000    Uiso  ? S
   H          1.0     0.500000     0.500000     0.000000    Uiso  ? H
   H          1.0     0.500000     0.000000     0.500000    Uiso  ? H
   H          1.0     0.000000     0.500000     0.500000    Uiso  ? H
