
#======================================================================
# CRYSTAL DATA
#----------------------------------------------------------------------
data_VESTA_phase_1

_chemical_name_common                  'New structure'
_cell_length_a                         3.587612
_cell_length_b                         3.587612
_cell_length_c                         2.387738
_cell_angle_alpha                      90.000000
_cell_angle_beta                       90.000000
_cell_angle_gamma                      120.000000
_cell_volume                           26.615109
_space_group_name_H-M_alt              'P 1'
_space_group_IT_number                 1

loop_
_space_group_symop_operation_xyz
   'x, y, z'

loop_
   _atom_site_label
   _atom_site_occupancy
   _atom_site_fract_x
   _atom_site_fract_y
   _atom_site_fract_z
   _atom_site_adp_type
   _atom_site_U_iso_or_equiv
   _atom_site_type_symbol
   Sr         1.0     0.000000     -0.000000     0.500000    Uiso  ? Sr
   H          1.0     0.368703     0.000000     -0.000000    Uiso  ? H
   H          1.0     0.730196     0.173320     0.000000    Uiso  ? H
   H          1.0     0.443123     0.269804     0.000000    Uiso  ? H
   H          1.0     -0.000000     0.368703     0.000000    Uiso  ? H
   H          1.0     0.269804     0.443123     -0.000000    Uiso  ? H
   H          1.0     0.826680     0.556877     0.000000    Uiso  ? H
   H          1.0     0.631297     0.631297     -0.000000    Uiso  ? H
   H          1.0     0.173320     0.730196     -0.000000    Uiso  ? H
   H          1.0     0.556877     0.826680     0.000000    Uiso  ? H
   H          1.0     0.569251     0.134769     0.500000    Uiso  ? H
   H          1.0     0.565518     0.430749     0.500000    Uiso  ? H
   H          1.0     0.865231     0.434482     0.500000    Uiso  ? H
   H          1.0     0.134769     0.569251     0.500000    Uiso  ? H
   H          1.0     0.430749     0.565518     0.500000    Uiso  ? H
   H          1.0     0.434482     0.865231     0.500000    Uiso  ? H
