
#======================================================================
# CRYSTAL DATA
#----------------------------------------------------------------------
data_VESTA_phase_1

_chemical_name_common                  'New structure'
_cell_length_a                         3.130276
_cell_length_b                         3.130276
_cell_length_c                         2.412807
_cell_angle_alpha                      90.000000
_cell_angle_beta                       90.000000
_cell_angle_gamma                      98.405945
_cell_volume                           23.388214
_space_group_name_H-M_alt              'P 1'
_space_group_IT_number                 1

loop_
_space_group_symop_operation_xyz
   'x, y, z'

loop_
   _atom_site_label
   _atom_site_occupancy
   _atom_site_fract_x
   _atom_site_fract_y
   _atom_site_fract_z
   _atom_site_adp_type
   _atom_site_U_iso_or_equiv
   _atom_site_type_symbol
   Na         1.0     0.782054     0.217946     0.000000    Uiso  ? Na
   Na         1.0     0.217946     0.782054     0.000000    Uiso  ? Na
   H          1.0     0.305587     0.305587     0.164155    Uiso  ? H
   H          1.0     0.694413     0.694413     0.164155    Uiso  ? H
   H          1.0     0.096273     0.096273     0.500000    Uiso  ? H
   H          1.0     0.446564     0.105970     0.500000    Uiso  ? H
   H          1.0     0.105970     0.446564     0.500000    Uiso  ? H
   H          1.0     0.500000     0.500000     0.500000    Uiso  ? H
   H          1.0     0.894030     0.553436     0.500000    Uiso  ? H
   H          1.0     0.553436     0.894030     0.500000    Uiso  ? H
   H          1.0     0.903727     0.903727     0.500000    Uiso  ? H
   H          1.0     0.305587     0.305587     0.835845    Uiso  ? H
   H          1.0     0.694413     0.694413     0.835845    Uiso  ? H
