
#======================================================================
# CRYSTAL DATA
#----------------------------------------------------------------------
data_VESTA_phase_1

_chemical_name_common                  'New structure'
_cell_length_a                         3.088485
_cell_length_b                         3.088485
_cell_length_c                         3.088485
_cell_angle_alpha                      60.000000
_cell_angle_beta                       60.000000
_cell_angle_gamma                      60.000000
_cell_volume                           20.831536
_space_group_name_H-M_alt              'P 1'
_space_group_IT_number                 1

loop_
_space_group_symop_operation_xyz
   'x, y, z'

loop_
   _atom_site_label
   _atom_site_occupancy
   _atom_site_fract_x
   _atom_site_fract_y
   _atom_site_fract_z
   _atom_site_adp_type
   _atom_site_U_iso_or_equiv
   _atom_site_type_symbol
   Sr         1.0     0.000000     0.000000     0.000000    Uiso  ? Sr
   H          1.0     0.619004     0.619004     0.142989    Uiso  ? H
   H          1.0     0.250000     0.250000     0.250000    Uiso  ? H
   H          1.0     0.380996     0.380996     0.380996    Uiso  ? H
   H          1.0     0.857011     0.380996     0.380996    Uiso  ? H
   H          1.0     0.380996     0.857011     0.380996    Uiso  ? H
   H          1.0     0.619004     0.142989     0.619004    Uiso  ? H
   H          1.0     0.142989     0.619004     0.619004    Uiso  ? H
   H          1.0     0.619004     0.619004     0.619004    Uiso  ? H
   H          1.0     0.750000     0.750000     0.750000    Uiso  ? H
   H          1.0     0.380996     0.380996     0.857011    Uiso  ? H
