# CIF file
# This file was generated by FINDSYM
# Harold T. Stokes, Branton J. Campbell, Dorian M. Hatch
# Brigham Young University, Provo, Utah, USA
 
data_findsym-output
 
_symmetry_space_group_name_H-M 'R 3 m (hexagonal axes)'
_symmetry_Int_Tables_number 160
 
_cell_length_a       4.05522
_cell_length_b       4.05522
_cell_length_c       5.05713
_cell_angle_alpha   90.00000
_cell_angle_beta    90.00000
_cell_angle_gamma  120.00000
 
loop_
_space_group_symop_operation_xyz
x,y,z
-y,x-y,z
-x+y,-x,z
-y,-x,z
x,x-y,z
-x+y,y,z
x+1/3,y+2/3,z+2/3
-y+1/3,x-y+2/3,z+2/3
-x+y+1/3,-x+2/3,z+2/3
-y+1/3,-x+2/3,z+2/3
x+1/3,x-y+2/3,z+2/3
-x+y+1/3,y+2/3,z+2/3
x+2/3,y+1/3,z+1/3
-y+2/3,x-y+1/3,z+1/3
-x+y+2/3,-x+1/3,z+1/3
-y+2/3,-x+1/3,z+1/3
x+2/3,x-y+1/3,z+1/3
-x+y+2/3,y+1/3,z+1/3
 
loop_
_atom_site_label
_atom_site_type_symbol
_atom_site_fract_x
_atom_site_fract_y
_atom_site_fract_z
_atom_site_occupancy
C1  C    0.00000   0.00000  -0.33247   1.00000
S1  S    0.00000   0.00000   0.20507   1.00000
H1  H    0.00000   0.00000  -0.13355   1.00000
H2  H    0.16772  -0.16772   0.03523   1.00000
H3  H    0.46652  -0.46652   0.26313   1.00000
 
# end_of_file
