
#======================================================================
# CRYSTAL DATA
#----------------------------------------------------------------------
data_VESTA_phase_1

_chemical_name_common                  'New structure'
_cell_length_a                         3.658436
_cell_length_b                         3.658438
_cell_length_c                         3.658435
_cell_angle_alpha                      59.999981
_cell_angle_beta                       60.000004
_cell_angle_gamma                      59.999947
_cell_volume                           34.623522
_space_group_name_H-M_alt              'P 1'
_space_group_IT_number                 1

loop_
_space_group_symop_operation_xyz
   'x, y, z'

loop_
   _atom_site_label
   _atom_site_occupancy
   _atom_site_fract_x
   _atom_site_fract_y
   _atom_site_fract_z
   _atom_site_adp_type
   _atom_site_U_iso_or_equiv
   _atom_site_type_symbol
   Na         1.0     0.250000     0.243028     0.256972    Uiso  ? Na
   Na         1.0     0.750000     0.743028     0.756972    Uiso  ? Na
   H          1.0     0.829670     0.163358     0.177302    Uiso  ? H
   H          1.0     0.170330     0.822698     0.177302    Uiso  ? H
   H          1.0     0.829670     0.822698     0.177302    Uiso  ? H
   H          1.0     0.670330     0.322698     0.336642    Uiso  ? H
   H          1.0     0.329670     0.663358     0.336642    Uiso  ? H
   H          1.0     0.670330     0.663358     0.336642    Uiso  ? H
   H          1.0     0.329670     0.322698     0.677302    Uiso  ? H
   H          1.0     0.670330     0.322698     0.677302    Uiso  ? H
   H          1.0     0.329670     0.663358     0.677302    Uiso  ? H
   H          1.0     0.170330     0.163358     0.836642    Uiso  ? H
   H          1.0     0.829670     0.163358     0.836642    Uiso  ? H
   H          1.0     0.170330     0.822698     0.836642    Uiso  ? H
