
#======================================================================
# CRYSTAL DATA
#----------------------------------------------------------------------
data_VESTA_phase_1

_chemical_name_common                  'New structure'
_cell_length_a                         3.064101
_cell_length_b                         3.577403
_cell_length_c                         5.477851
_cell_angle_alpha                      92.287025
_cell_angle_beta                       98.545433
_cell_angle_gamma                      110.827171
_cell_volume                           55.218946
_space_group_name_H-M_alt              'P 1'
_space_group_IT_number                 1

loop_
_space_group_symop_operation_xyz
   'x, y, z'

loop_
   _atom_site_label
   _atom_site_occupancy
   _atom_site_fract_x
   _atom_site_fract_y
   _atom_site_fract_z
   _atom_site_adp_type
   _atom_site_U_iso_or_equiv
   _atom_site_type_symbol
   La         1.0     0.819765     0.766083     0.264187    Uiso  ? La
   La         1.0     0.180235     0.233917     0.735813    Uiso  ? La
   H          1.0     0.431396     0.146668     0.122530    Uiso  ? H
   H          1.0     0.568604     0.853332     0.877470    Uiso  ? H
   H          1.0     0.768186     0.244729     0.037797    Uiso  ? H
   H          1.0     0.231814     0.755271     0.962203    Uiso  ? H
   H          1.0     0.190608     0.389966     0.377434    Uiso  ? H
   H          1.0     0.809392     0.610034     0.622566    Uiso  ? H
   H          1.0     0.113428     0.344210     0.108936    Uiso  ? H
   H          1.0     0.886572     0.655791     0.891064    Uiso  ? H
   H          1.0     0.427013     0.789419     0.564277    Uiso  ? H
   H          1.0     0.572987     0.210581     0.435723    Uiso  ? H
