
#======================================================================
# CRYSTAL DATA
#----------------------------------------------------------------------
data_VESTA_phase_1

_chemical_name_common                  'New structure'
_cell_length_a                         2.646698
_cell_length_b                         3.315148
_cell_length_c                         3.925182
_cell_angle_alpha                      68.755020
_cell_angle_beta                       75.186661
_cell_angle_gamma                      88.504005
_cell_volume                           30.948150
_space_group_name_H-M_alt              'P 1'
_space_group_IT_number                 1

loop_
_space_group_symop_operation_xyz
   'x, y, z'

loop_
   _atom_site_label
   _atom_site_occupancy
   _atom_site_fract_x
   _atom_site_fract_y
   _atom_site_fract_z
   _atom_site_adp_type
   _atom_site_U_iso_or_equiv
   _atom_site_type_symbol
   Mg         1.0     0.500000     0.500000     0.500000    Uiso  ? Mg
   H          1.0     0.453215     0.682638     0.026806    Uiso  ? H
   H          1.0     0.664877     0.840676     0.053204    Uiso  ? H
   H          1.0     0.840707     0.304749     0.153443    Uiso  ? H
   H          1.0     0.981169     0.890362     0.178814    Uiso  ? H
   H          1.0     0.058051     0.385783     0.238934    Uiso  ? H
   H          1.0     0.054772     0.869220     0.383826    Uiso  ? H
   H          1.0     0.441398     0.043971     0.394909    Uiso  ? H
   H          1.0     0.558602     0.956029     0.605091    Uiso  ? H
   H          1.0     0.945228     0.130780     0.616174    Uiso  ? H
   H          1.0     0.941949     0.614217     0.761066    Uiso  ? H
   H          1.0     0.018831     0.109638     0.821186    Uiso  ? H
   H          1.0     0.159293     0.695251     0.846557    Uiso  ? H
   H          1.0     0.335123     0.159324     0.946796    Uiso  ? H
   H          1.0     0.546785     0.317362     0.973194    Uiso  ? H
