
#======================================================================
# CRYSTAL DATA
#----------------------------------------------------------------------
data_VESTA_phase_1

_chemical_name_common                  'New structure'
_cell_length_a                         3.201010
_cell_length_b                         3.201010
_cell_length_c                         3.201010
_cell_angle_alpha                      119.050293
_cell_angle_beta                       119.050293
_cell_angle_gamma                      91.652962
_cell_volume                           23.514745
_space_group_name_H-M_alt              'P 1'
_space_group_IT_number                 1

loop_
_space_group_symop_operation_xyz
   'x, y, z'

loop_
   _atom_site_label
   _atom_site_occupancy
   _atom_site_fract_x
   _atom_site_fract_y
   _atom_site_fract_z
   _atom_site_adp_type
   _atom_site_U_iso_or_equiv
   _atom_site_type_symbol
   Na         1.0     0.500000     -0.000000     0.500000    Uiso  ? Na
   Na         1.0     0.000000     0.500000     0.500000    Uiso  ? Na
   H          1.0     0.084355     0.084355     0.000000    Uiso  ? H
   H          1.0     0.433657     0.096932     0.000000    Uiso  ? H
   H          1.0     0.096932     0.433657     0.000000    Uiso  ? H
   H          1.0     0.500000     0.500000     0.000000    Uiso  ? H
   H          1.0     0.903068     0.566343     0.000000    Uiso  ? H
   H          1.0     0.566343     0.903068     0.000000    Uiso  ? H
   H          1.0     0.915645     0.915645     -0.000000    Uiso  ? H
   H          1.0     0.433657     0.433657     0.336725    Uiso  ? H
   H          1.0     0.903068     0.903068     0.336725    Uiso  ? H
   H          1.0     0.096932     0.096932     0.663275    Uiso  ? H
   H          1.0     0.566343     0.566343     0.663275    Uiso  ? H
