
#======================================================================
# CRYSTAL DATA
#----------------------------------------------------------------------
data_VESTA_phase_1

_chemical_name_common                  'New structure'
_cell_length_a                         2.348966
_cell_length_b                         2.348966
_cell_length_c                         2.348966
_cell_angle_alpha                      74.753616
_cell_angle_beta                       74.753616
_cell_angle_gamma                      74.753616
_cell_volume                           11.800056
_space_group_name_H-M_alt              'P 1'
_space_group_IT_number                 1

loop_
_space_group_symop_operation_xyz
   'x, y, z'

loop_
   _atom_site_label
   _atom_site_occupancy
   _atom_site_fract_x
   _atom_site_fract_y
   _atom_site_fract_z
   _atom_site_adp_type
   _atom_site_U_iso_or_equiv
   _atom_site_type_symbol
   Li         1.0     0.000000     0.000000     -0.000000    Uiso  ? Li
   H          1.0     0.587416     0.587416     0.080022    Uiso  ? H
   H          1.0     0.919978     0.412584     0.412584    Uiso  ? H
   H          1.0     0.412584     0.919978     0.412584    Uiso  ? H
   H          1.0     0.587416     0.080022     0.587416    Uiso  ? H
   H          1.0     0.080022     0.587416     0.587416    Uiso  ? H
   H          1.0     0.412584     0.412584     0.919978    Uiso  ? H
