
#======================================================================
# CRYSTAL DATA
#----------------------------------------------------------------------
data_VESTA_phase_1

_chemical_name_common                  'New structure'
_cell_length_a                         2.118413
_cell_length_b                         2.118413
_cell_length_c                         1.584601
_cell_angle_alpha                      90.000000
_cell_angle_beta                       90.000000
_cell_angle_gamma                      120.000000
_cell_volume                           6.158457
_space_group_name_H-M_alt              'P 1'
_space_group_IT_number                 1

loop_
_space_group_symop_operation_xyz
   'x, y, z'

loop_
   _atom_site_label
   _atom_site_occupancy
   _atom_site_fract_x
   _atom_site_fract_y
   _atom_site_fract_z
   _atom_site_adp_type
   _atom_site_U_iso_or_equiv
   _atom_site_type_symbol
   Li         1.0     -0.000000     -0.000000     0.500000    Uiso  ? Li
   H          1.0     0.666667     0.333333     0.000000    Uiso  ? H
   H          1.0     0.333333     0.666667     0.000000    Uiso  ? H
