
#======================================================================
# CRYSTAL DATA
#----------------------------------------------------------------------
data_VESTA_phase_1

_chemical_name_common                  'New structure'
_cell_length_a                         2.999948
_cell_length_b                         2.999948
_cell_length_c                         2.620401
_cell_angle_alpha                      90.000000
_cell_angle_beta                       90.000000
_cell_angle_gamma                      120.000000
_cell_volume                           20.423296
_space_group_name_H-M_alt              'P 1'
_space_group_IT_number                 1

loop_
_space_group_symop_operation_xyz
   'x, y, z'

loop_
   _atom_site_label
   _atom_site_occupancy
   _atom_site_fract_x
   _atom_site_fract_y
   _atom_site_fract_z
   _atom_site_adp_type
   _atom_site_U_iso_or_equiv
   _atom_site_type_symbol
   Mg         1.0     0.333333     0.666667     0.431510    Uiso  ? Mg
   H          1.0     0.304140     0.152070     0.254402    Uiso  ? H
   H          1.0     0.847930     0.152070     0.254402    Uiso  ? H
   H          1.0     0.847930     0.695860     0.254402    Uiso  ? H
   H          1.0     0.381234     0.190617     0.550482    Uiso  ? H
   H          1.0     0.809383     0.190617     0.550482    Uiso  ? H
   H          1.0     0.809383     0.618766     0.550482    Uiso  ? H
   H          1.0     -0.000000     -0.000000     0.752321    Uiso  ? H
   H          1.0     0.540471     0.080943     0.922382    Uiso  ? H
   H          1.0     0.540471     0.459529     0.922382    Uiso  ? H
   H          1.0     0.919057     0.459529     0.922382    Uiso  ? H
   H          1.0     0.159613     0.319225     0.935974    Uiso  ? H
   H          1.0     0.159613     0.840387     0.935974    Uiso  ? H
   H          1.0     0.680775     0.840387     0.935974    Uiso  ? H
