
#======================================================================
# CRYSTAL DATA
#----------------------------------------------------------------------
data_VESTA_phase_1

_chemical_name_common                  'New structure'
_cell_length_a                         2.903785
_cell_length_b                         2.903785
_cell_length_c                         4.255415
_cell_angle_alpha                      90.000000
_cell_angle_beta                       90.000000
_cell_angle_gamma                      120.000000
_cell_volume                           31.074321
_space_group_name_H-M_alt              'P 1'
_space_group_IT_number                 1

loop_
_space_group_symop_operation_xyz
   'x, y, z'

loop_
   _atom_site_label
   _atom_site_occupancy
   _atom_site_fract_x
   _atom_site_fract_y
   _atom_site_fract_z
   _atom_site_adp_type
   _atom_site_U_iso_or_equiv
   _atom_site_type_symbol
   Na         1.0     0.666667     0.333333     0.250000    Uiso  ? Na
   Na         1.0     0.333333     0.666667     0.750000    Uiso  ? Na
   H          1.0     0.153063     0.306127     0.073534    Uiso  ? H
   H          1.0     0.153063     0.846937     0.073534    Uiso  ? H
   H          1.0     0.693873     0.846937     0.073534    Uiso  ? H
   H          1.0     0.333333     0.666667     0.127244    Uiso  ? H
   H          1.0     -0.000000     -0.000000     0.250000    Uiso  ? H
   H          1.0     0.333333     0.666667     0.372756    Uiso  ? H
   H          1.0     0.153063     0.306127     0.426466    Uiso  ? H
   H          1.0     0.153063     0.846937     0.426466    Uiso  ? H
   H          1.0     0.693873     0.846937     0.426466    Uiso  ? H
   H          1.0     0.306127     0.153063     0.573534    Uiso  ? H
   H          1.0     0.846937     0.153063     0.573534    Uiso  ? H
   H          1.0     0.846937     0.693873     0.573534    Uiso  ? H
   H          1.0     0.666667     0.333333     0.627244    Uiso  ? H
   H          1.0     -0.000000     -0.000000     0.750000    Uiso  ? H
   H          1.0     0.666667     0.333333     0.872756    Uiso  ? H
   H          1.0     0.306127     0.153063     0.926466    Uiso  ? H
   H          1.0     0.846937     0.153063     0.926466    Uiso  ? H
   H          1.0     0.846937     0.693873     0.926466    Uiso  ? H
