
#======================================================================
# CRYSTAL DATA
#----------------------------------------------------------------------
data_VESTA_phase_1

_chemical_name_common                  'New structure'
_cell_length_a                         3.265479
_cell_length_b                         3.265481
_cell_length_c                         4.888346
_cell_angle_alpha                      101.604568
_cell_angle_beta                       101.604523
_cell_angle_gamma                      113.437492
_cell_volume                           44.496355
_space_group_name_H-M_alt              'P 1'
_space_group_IT_number                 1

loop_
_space_group_symop_operation_xyz
   'x, y, z'

loop_
   _atom_site_label
   _atom_site_occupancy
   _atom_site_fract_x
   _atom_site_fract_y
   _atom_site_fract_z
   _atom_site_adp_type
   _atom_site_U_iso_or_equiv
   _atom_site_type_symbol
   Na         1.0     0.488235     0.384918    -0.000000    Uiso  ? Na
   H          1.0     0.865405     0.082817     0.082989    Uiso  ? H
   H          1.0     0.186133     0.762088     0.082989    Uiso  ? H
   H          1.0     0.564887     0.130885     0.331285    Uiso  ? H
   H          1.0     0.234200     0.461572     0.331285    Uiso  ? H
   H          1.0     0.110860     0.007545     0.342721    Uiso  ? H
   H          1.0     0.806039     0.357303     0.362443    Uiso  ? H
   H          1.0     0.460619     0.702724     0.362443    Uiso  ? H
   H          1.0     0.904584     0.801268     0.367728    Uiso  ? H
   H          1.0     0.098176     0.340280     0.637557    Uiso  ? H
   H          1.0     0.536855     0.433540     0.632272    Uiso  ? H
   H          1.0     0.443596     0.994860     0.637557    Uiso  ? H
   H          1.0     0.768139     0.664823     0.657279    Uiso  ? H
   H          1.0     0.902915     0.130286     0.668715    Uiso  ? H
   H          1.0     0.233602     0.799599     0.668715    Uiso  ? H
   H          1.0     0.103145     0.679100     0.917011    Uiso  ? H
   H          1.0     0.782416     0.999828     0.917011    Uiso  ? H
