
#======================================================================
# CRYSTAL DATA
#----------------------------------------------------------------------
data_VESTA_phase_1

_chemical_name_common                  'New structure'
_cell_length_a                         3.845491
_cell_length_b                         3.845492
_cell_length_c                         5.599228
_cell_angle_alpha                      89.999992
_cell_angle_beta                       90.000008
_cell_angle_gamma                      120.000038
_cell_volume                           71.707138
_space_group_name_H-M_alt              'P 1'
_space_group_IT_number                 1

loop_
_space_group_symop_operation_xyz
   'x, y, z'

loop_
   _atom_site_label
   _atom_site_occupancy
   _atom_site_fract_x
   _atom_site_fract_y
   _atom_site_fract_z
   _atom_site_adp_type
   _atom_site_U_iso_or_equiv
   _atom_site_type_symbol
   Ac         1.0     0.432392     0.599314     0.514983    Uiso  ? Ac
   Ac         1.0     0.099059     0.932647     0.014984    Uiso  ? Ac
   H          1.0     0.765726     0.265980     0.456888    Uiso  ? H
   H          1.0     0.765726     0.265981     0.956890    Uiso  ? H
   H          1.0     0.025092     0.395664     0.806247    Uiso  ? H
   H          1.0     0.895409     0.525348     0.306245    Uiso  ? H
   H          1.0     0.946876     0.084831     0.679635    Uiso  ? H
   H          1.0     0.584576     0.447130     0.179635    Uiso  ? H
   H          1.0     0.999166     0.732861     0.397249    Uiso  ? H
   H          1.0     0.232607     0.499421     0.897250    Uiso  ? H
   H          1.0     0.128025     0.447130     0.179635    Uiso  ? H
   H          1.0     0.946875     0.628280     0.679635    Uiso  ? H
   H          1.0     0.506359     0.136297     0.306245    Uiso  ? H
   H          1.0     0.636043     0.006614     0.806247    Uiso  ? H
   H          1.0     0.584576     0.903681     0.179635    Uiso  ? H
   H          1.0     0.403426     0.084831     0.679635    Uiso  ? H
   H          1.0     0.636043     0.395664     0.806247    Uiso  ? H
   H          1.0     0.895409     0.136297     0.306245    Uiso  ? H
   H          1.0     0.532285     0.499421     0.897250    Uiso  ? H
   H          1.0     0.999166     0.032540     0.397249    Uiso  ? H
   H          1.0     0.432393     0.599314     0.128560    Uiso  ? H
   H          1.0     0.099059     0.932647     0.628556    Uiso  ? H
   H          1.0     0.298845     0.032540     0.397249    Uiso  ? H
   H          1.0     0.532285     0.799099     0.897250    Uiso  ? H
   H          1.0     0.765726     0.265980     0.605416    Uiso  ? H
   H          1.0     0.765726     0.265980     0.105418    Uiso  ? H
