
#======================================================================
# CRYSTAL DATA
#----------------------------------------------------------------------
data_VESTA_phase_1

_chemical_name_common                  'New structure'
_cell_length_a                         3.196706
_cell_length_b                         3.196706
_cell_length_c                         3.196706
_cell_angle_alpha                      60.000000
_cell_angle_beta                       60.000000
_cell_angle_gamma                      60.000000
_cell_volume                           23.099002
_space_group_name_H-M_alt              'P 1'
_space_group_IT_number                 1

loop_
_space_group_symop_operation_xyz
   'x, y, z'

loop_
   _atom_site_label
   _atom_site_occupancy
   _atom_site_fract_x
   _atom_site_fract_y
   _atom_site_fract_z
   _atom_site_adp_type
   _atom_site_U_iso_or_equiv
   _atom_site_type_symbol
   Y          1.0     0.250000     0.250000     0.250000    Uiso  ? Y
   H          1.0     0.635622     0.635622     0.093134    Uiso  ? H
   H          1.0     0.887189     0.887189     0.338433    Uiso  ? H
   H          1.0     0.500000     0.500000     0.500000    Uiso  ? H
   H          1.0     0.635622     0.093134     0.635622    Uiso  ? H
   H          1.0     0.093134     0.635622     0.635622    Uiso  ? H
   H          1.0     0.635622     0.635622     0.635622    Uiso  ? H
   H          1.0     0.887189     0.338433     0.887189    Uiso  ? H
   H          1.0     0.338433     0.887189     0.887189    Uiso  ? H
   H          1.0     0.887189     0.887189     0.887189    Uiso  ? H
