
#======================================================================
# CRYSTAL DATA
#----------------------------------------------------------------------
data_VESTA_phase_1

_chemical_name_common                  'New structure'
_cell_length_a                         3.212161
_cell_length_b                         3.360204
_cell_length_c                         3.545216
_cell_angle_alpha                      74.890327
_cell_angle_beta                       67.036568
_cell_angle_gamma                      66.118896
_cell_volume                           31.975894
_space_group_name_H-M_alt              'P 1'
_space_group_IT_number                 1

loop_
_space_group_symop_operation_xyz
   'x, y, z'

loop_
   _atom_site_label
   _atom_site_occupancy
   _atom_site_fract_x
   _atom_site_fract_y
   _atom_site_fract_z
   _atom_site_adp_type
   _atom_site_U_iso_or_equiv
   _atom_site_type_symbol
   Y          1.0     0.500000     -0.000000     0.000000    Uiso  ? Y
   H          1.0     0.677852     0.377192     0.121749    Uiso  ? H
   H          1.0     0.917823     0.472808     0.131509    Uiso  ? H
   H          1.0     0.005788     0.804660     0.190682    Uiso  ? H
   H          1.0     0.317417     0.518036     0.224483    Uiso  ? H
   H          1.0     0.857736     0.086437     0.223492    Uiso  ? H
   H          1.0     0.788985     0.646234     0.357396    Uiso  ? H
   H          1.0     0.125664     0.342571     0.388927    Uiso  ? H
   H          1.0     0.401927     0.617146     0.443725    Uiso  ? H
   H          1.0     0.526476     0.123182     0.463182    Uiso  ? H
   H          1.0     0.948537     0.154487     0.478018    Uiso  ? H
   H          1.0     0.051463     0.845513     0.521982    Uiso  ? H
   H          1.0     0.473524     0.876818     0.536818    Uiso  ? H
   H          1.0     0.598073     0.382854     0.556275    Uiso  ? H
   H          1.0     0.874336     0.657429     0.611073    Uiso  ? H
   H          1.0     0.211015     0.353766     0.642604    Uiso  ? H
   H          1.0     0.142264     0.913563     0.776508    Uiso  ? H
   H          1.0     0.682583     0.481964     0.775517    Uiso  ? H
   H          1.0     0.994212     0.195340     0.809318    Uiso  ? H
   H          1.0     0.082177     0.527192     0.868491    Uiso  ? H
   H          1.0     0.322148     0.622808     0.878251    Uiso  ? H
